test/data/nordic_fault_multiterminal/multiterminal10/lfac_fault_4032_4044_1_original_10.m
%% MATPOWER Case Format : Version 2
function mpc = fault_4032_4044_1_original_10
mpc.version = '2';

%%-----  Power Flow Data  -----%%
%% system MVA base
mpc.baseMVA = 100;
%% bus data
%    bus_i    type    Pd    Qd    Gs    Bs    area    Vm    Va    baseKV    zone    Vmax    Vmin
mpc.bus = [
	24011	3	0.0	0.0	0.0	0.0	1	1.02043	-68.1476	400.0	1	1.1	0.9
	24021	1	0.0	0.0	0.0	0.0	1	1.02681	-97.0879	400.0	1	1.1	0.9
	24031	1	0.0	0.0	0.0	0.0	1	1.01452	-99.8015	400.0	1	1.1	0.9
	24032	1	0.0	0.0	0.0	0.0	1	1.02359	-103.2469	400.0	1	1.1	0.9
	24042	1	0.0	0.0	0.0	0.0	2	1.00838	-123.45080000000002	400.0	1	1.1	0.9
	24043	1	0.0	0.0	0.0	200.0	2	1.00972	-131.3289	400.0	1	1.1	0.9
	24044	1	0.0	0.0	0.0	0.0	2	1.0087	-133.0995	400.0	1	1.1	0.9
];

%% generator data
%    bus    Pg    Qg    Qmax    Qmin    Vg    mBase    status    Pmax    Pmin    Pc1    Pc2    Qc1min    Qc1max    Qc2min    Qc2max    ramp_agc    ramp_10    ramp_30    ramp_q    apf
mpc.gen = [
	24011	247.268	104.877	93.675	-93.675	1.0211	300.0	0	285.0	0.0	0.0	0.0	0.0	0.0	0.0	0.0	0.0	0.0	0.0	0.0	0.0	0.0	0.0	0.0	0.0
];

%% branch data
%    fbus    tbus    r    x    b    rateA    rateB    rateC    ratio    angle    status    angmin    angmax
mpc.branch = [
	24011	24021	0.006	0.06	1.79949	1400.0	1400.0	1400.0	0	0	1	-40.0	40.0
	24021	24042	0.01	0.1	3.00086	1400.0	1400.0	1400.0	0	0	1	-40.0	40.0
	24021	24032	0.004	0.04	1.20134	1400.0	1400.0	1400.0	0	0	1	-40.0	40.0
	24031	24032	0.001	0.01	0.30159	1400.0	1400.0	1400.0	0	0	1	-40.0	40.0
	24032	24042	0.01	0.066667	2.00058	1400.0	1400.0	1400.0	0	0	1	-40.0	40.0
	24032	24044	0.006	0.08	2.39766	1400.0	1400.0	1400.0	0	0	0	-40.0	40.0
	24042	24043	0.002	0.015	0.49763	1400.0	1400.0	1400.0	0	0	1	-40.0	40.0
	24042	24044	0.002	0.02	0.59818	1400.0	1400.0	1400.0	0	0	1	-40.0	40.0
];

%% bus names
mpc.bus_name = {
	'Bus 4011	LF'
	'Bus 4021	LF'
	'Bus 4031	LF'
	'Bus 4032	LF'
	'Bus 4042	LF'
	'Bus 4043	LF'
	'Bus 4044	LF'
};
